psse_raw/case16_all_components.raw
0,   100.00, 33, 0, 1, 60.00     / PSS(R)E 33 RAW created by rawd33  TUE, SEP 09 2025  15:34


   100,'BUS 100     ', 230.0000,1,   1,   1,   1,1.00000,  -0.2610,1.10000,0.90000,1.10000,0.90000
   101,'BUS 101     ', 230.0000,1,   1,   1,   1,0.99433,  -6.1118,1.10000,0.90000,1.10000,0.90000
   102,'BUS 102     ', 230.0000,2,   1,   1,   1,1.00000,  -0.2610,1.10000,0.90000,1.10000,0.90000
   103,'BUS 103     ', 230.0000,2,   1,   1,   1,1.00000,  -7.8623,1.10000,0.90000,1.10000,0.90000
   104,'BUS 104     ', 230.0000,3,   1,   1,   1,1.00000,  -0.9005,1.10000,0.90000,1.10000,0.90000
   105,'BUS 105     ', 230.0000,1,   1,   1,   1,1.00286,  -7.8542,1.10000,0.90000,1.10000,0.90000
   106,'BUS 106     ', 230.0000,1,   1,   1,   1,1.00000,  -0.2610,1.10000,0.90000,1.10000,0.90000
   201,'BUS 201     ', 220.0000,1,   1,   1,   1,0.99411,  -8.0614,1.10000,0.90000,1.10000,0.90000
   301,'BUS 301     ', 138.0000,2,   1,   1,   1,1.00000,  16.8849,1.10000,0.90000,1.10000,0.90000
   302,'BUS 302     ', 135.0000,1,   1,   1,   1,0.95000,  16.8849,1.10000,0.90000,1.10000,0.90000
   303,'BUS 303     ',  65.0000,1,   1,   1,   1,1.00000,  16.8849,1.10000,0.90000,1.10000,0.90000
   304,'BUS 304     ',  65.0000,1,   1,   1,   1,1.00000,  16.8849,1.10000,0.90000,1.10000,0.90000
   501,'BUS 501     ', 230.0000,1,   1,   1,   1,0.95756,  -8.0870,1.10000,0.90000,1.10000,0.90000
   502,'BUS 502     ', 138.0000,1,   1,   1,   1,0.95756,  -8.0870,1.10000,0.90000,1.10000,0.90000
   503,'BUS 503     ', 145.0000,1,   1,   1,   1,0.95756,  -8.0870,1.10000,0.90000,1.10000,0.90000
   504,'BUS 504     ', 138.8000,1,   1,   1,   1,0.95756,  -8.0870,1.10000,0.90000,1.10000,0.90000
0 / END OF BUS DATA, BEGIN LOAD DATA
   100,'1 ',1,   1,   1,    15.000,     5.000,     0.000,     0.000,     0.000,     0.000,   1,1,0
   101,'1 ',1,   1,   1,   150.000,    25.000,     0.000,     0.000,     0.000,     0.000,   1,1,1
   103,'1 ',1,   1,   1,     8.000,     2.000,     0.000,     0.000,     0.000,     0.000,   1,1,1
   105,'1 ',1,   1,   1,     8.000,     2.000,     0.000,     0.000,     0.000,     0.000,   1,1,0
   106,'1 ',1,   1,   1,   120.000,    40.000,     0.000,     0.000,     0.000,     0.000,   1,1,0
   201,'1 ',1,   1,   1,    20.000,     5.000,     0.000,     0.000,     0.000,     0.000,   1,1,0
0 / END OF LOAD DATA, BEGIN FIXED SHUNT DATA
   102,'1 ',1,     5.000,    10.000
   104,'1 ',1,     5.000,    20.000
   201,'1 ',1,    10.000,    30.000
0 / END OF FIXED SHUNT DATA, BEGIN GENERATOR DATA
   102,'1 ',  1069.753, -6426.231,  9999.000, -9999.000,1.00000,     0,   100.000, 0.00000E+0, 1.00000E+0, 0.00000E+0, 0.00000E+0,1.00000,1,  100.0,  9999.000, -9999.000,   1,1.0000
   103,'1 ',    20.000,  2691.271,  9999.000, -9999.000,1.00000,     0,   100.000, 0.00000E+0, 1.00000E+0, 0.00000E+0, 0.00000E+0,1.00000,1,  100.0,  9999.000, -9999.000,   1,1.0000
   104,'1 ',    39.098,   867.404,  9999.000, -9999.000,1.00000,     0,   100.000, 0.00000E+0, 1.00000E+0, 0.00000E+0, 0.00000E+0,1.00000,1,  100.0,  9999.000, -9999.000,   1,1.0000
   301,'1 ',    15.000,   268.804,  9999.000, -9999.000,1.00000,     0,   100.000, 0.00000E+0, 1.00000E+0, 0.00000E+0, 0.00000E+0,1.00000,1,  100.0,  9999.000, -9999.000,   1,1.0000
0 / END OF GENERATOR DATA, BEGIN BRANCH DATA
   100,   102,'1 ',-0.00000E+0, 1.00000E-4,   0.00000,    0.00,    0.00,    0.00,  0.00000,  0.00000,  0.00000,  0.00000,1,1,   0.00,   1,1.0000
   101,   102,'1 ', 2.30000E-3, 1.00000E-4,   0.09870,    0.00,    0.00,    0.00,  0.00000,  0.00000,  0.00000,  0.00000,1,1,   0.00,   1,1.0000
   101,   102,'2 ', 8.50000E-3, 1.00000E-4,   0.00250,    0.00,    0.00,    0.00,  0.00000,  0.00000,  0.00000,  0.00000,1,1,   0.00,   1,1.0000
   101,   103,'1 ', 5.40000E-4, 1.00000E-4,   0.00034,    0.00,    0.00,    0.00,  0.00000,  0.00000,  0.00000,  0.00000,1,1,   0.00,   1,1.0000
   102,   104,'1 ', 1.25000E-3, 1.00000E-4,   0.00534,    0.00,    0.00,    0.00,  0.00000,  0.00000,  0.00000,  0.00000,1,1,   0.00,   1,1.0000
   102,   106,'1 ',-0.00000E+0, 1.00000E-4,   0.00040,    0.00,    0.00,    0.00,  0.00000,  0.00000,  0.00000,  0.00000,1,2,   0.00,   1,1.0000
   103,   105,'1 ', 3.42000E-3, 1.00000E-4,   0.00654,    0.00,    0.00,    0.00,  0.00000,  0.00000,  0.00000,  0.00000,1,1,   0.00,   1,1.0000
   103,   201,'1 ', 4.53000E-3, 2.10000E-3,   0.00630,    0.00,    0.00,    0.00,  0.00000,  0.00000,  0.00000,  0.00000,1,1,   0.00,   1,1.0000
   303,   304,'@1',-0.00000E+0, 1.00000E-4,   0.00000,    0.00,    0.00,    0.00,  0.00000,  0.00000,  0.00000,  0.00000,1,1,   0.00,   1,1.0000
   503,   504,'*1',-0.00000E+0, 1.00000E-4,   0.00000,    0.00,    0.00,    0.00,  0.00000,  0.00000,  0.00000,  0.00000,1,1,   0.00,   1,1.0000
0 / END OF BRANCH DATA, BEGIN TRANSFORMER DATA
   301,   103,     0,'1 ',2,1,1, 3.45000E-2, 0.00000E+0,2,'            ',1,   1,1.0000,   0,1.0000,   0,1.0000,   0,1.0000,'            '
 3.40000E-2, 1.00000E-4,   100.00
138.000,   0.000,  30.000,     0.00,     0.00,     0.00, 0,      0, 1.10000, 0.90000, 1.10000, 0.90000,  33, 3, 0.00000, 0.00000,  0.000
230.000,   0.000
   501,   201,     0,'1 ',1,1,1, 0.00000E+0, 0.00000E+0,2,'            ',1,   1,1.0000,   0,1.0000,   0,1.0000,   0,1.0000,'            '
 3.40000E-2, 4.10000E-3,   100.00
1.00000,   0.000,   0.000,     0.00,     0.00,     0.00, 0,      0, 1.10000, 0.90000, 1.10000, 0.90000,  33, 1, 0.00000, 0.00000,  0.000
1.00000,   0.000
   302,   301,   303,'1 ',1,1,1, 0.00000E+0, 0.00000E+0,2,'            ',1,   1,1.0000,   0,1.0000,   0,1.0000,   0,1.0000,'            '
 5.70000E-4, 2.00000E-4,   100.00, 6.50000E-4, 2.00000E-4,   100.00, 7.60000E-4, 2.00000E-4,   100.00,1.00000,  16.8849
0.95000,   0.000,   0.000,     0.00,     0.00,     0.00,-1,      0, 1.10000, 0.90000, 1.10000, 0.90000,  33, 0, 0.00000, 0.00000,  0.000
1.00000,   0.000,   0.000,     0.00,     0.00,     0.00,-1,      0, 1.10000, 0.90000, 1.10000, 0.90000,  33, 0, 0.00000, 0.00000, 60.000
1.00000,   0.000,   0.000,     0.00,     0.00,     0.00, 0,      0, 1.10000, 0.90000, 1.10000, 0.90000,  33, 0, 0.00000, 0.00000,  0.000
   501,   502,   503,'1 ',1,1,1, 0.00000E+0, 0.00000E+0,2,'            ',1,   1,1.0000,   0,1.0000,   0,1.0000,   0,1.0000,'            '
 4.00000E-4, 2.00000E-4,   100.00, 5.00000E-4, 2.00000E-4,   100.00, 3.00000E-5, 2.00000E-4,   100.00,0.95756,  -8.0870
1.00000,   0.000,   0.000,     0.00,     0.00,     0.00, 0,      0, 1.10000, 0.90000, 1.10000, 0.90000,  33, 2, 0.00000, 0.00000,  0.000
1.00000,   0.000,   0.000,     0.00,     0.00,     0.00, 0,      0, 1.10000, 0.90000, 1.10000, 0.90000,  33, 0, 0.00000, 0.00000,  0.000
1.00000,   0.000,   0.000,     0.00,     0.00,     0.00, 0,      0, 1.10000, 0.90000, 1.10000, 0.90000,  33, 0, 0.00000, 0.00000,  0.000
0 / END OF TRANSFORMER DATA, BEGIN AREA DATA
0 / END OF AREA DATA, BEGIN TWO-TERMINAL DC DATA
"LINE       1",1,   20.0000,     50.00,    230.00,      0.00,    0.0000,   0.00000,'I',      0.00,  20,   1.00000
   102, 1,90.00, 5.00, 0.3000, 0.0000, 230.0,1.00000,1.00000,1.50000,0.51000,0.00625,     0,     0,     0,'1 ', 0.0000
   103, 1,90.00,18.00, 0.3000, 0.0000, 230.0,1.00000,1.00000,1.50000,0.51000,0.00625,     0,     0,     0,'1 ', 0.0000
"LINE       2",1,   50.0000,    100.00,    230.00,      0.00,    0.0000,   0.00000,'I',      0.00,  20,   1.00000
   104, 1,90.00, 5.00, 0.4000, 0.0000, 230.0,1.00000,1.00000,1.50000,0.51000,0.00625,     0,     0,     0,'1 ', 0.0000
   105, 1,90.00,18.00, 0.4000, 0.0000, 230.0,1.00000,1.00000,1.50000,0.51000,0.00625,     0,     0,     0,'1 ', 0.0000
0 / END OF TWO-TERMINAL DC DATA, BEGIN VSC DC LINE DATA
"LINE       1",1,    1.5800,   1,1.0000
   103,2,1,     96.00, 1.02000,  1600.000,     3.400,  1110.000,    360.00,   1032.00,0.50000,    -20.00,    -70.00,     0,  100.0
   501,1,1,    300.00, 1.02080,  1600.000,     3.400,  1110.000,    360.00,   1032.00,0.50000,    -11.00,    -70.00,     0,  100.0
0 / END OF VSC DC LINE DATA, BEGIN IMPEDANCE CORRECTION DATA
 1,0.87500, 1.12000,1.00000, 1.00000,1.02500, 0.97900,1.17500, 0.89500
 2,0.90000, 1.30000,1.00000, 1.00000,1.10000, 0.83000
 3,0.87500, 1.09300,0.95000, 1.03000,1.00000, 1.00000,1.10000, 0.95000,1.17500, 0.91600
0 / END OF IMPEDANCE CORRECTION DATA, BEGIN MULTI-TERMINAL DC DATA
0 / END OF MULTI-TERMINAL DC DATA, BEGIN MULTI-SECTION LINE DATA
0 / END OF MULTI-SECTION LINE DATA, BEGIN ZONE DATA
0 / END OF ZONE DATA, BEGIN INTER-AREA TRANSFER DATA
0 / END OF INTER-AREA TRANSFER DATA, BEGIN OWNER DATA
0 / END OF OWNER DATA, BEGIN FACTS DEVICE DATA
"FACTS      1",   103,     0,1,     0.000,     0.000,1.00000,  9999.000,  9999.000,0.90000,1.10000,1.00000,     0.000, 0.05000,  100.0,   1,   0.00000,   0.00000,0,     0,"            "
0 / END OF FACTS DEVICE DATA, BEGIN SWITCHED SHUNT DATA
   301,1,0,1,1.00000,1.00000,     0,  100.0,'            ',    0.50, 2,    0.25
0 / END OF SWITCHED SHUNT DATA, BEGIN GNE DATA
0 / END OF GNE DATA, BEGIN INDUCTION MACHINE DATA
0 / END OF INDUCTION MACHINE DATA
Q
